* NGSPICE file created from snn.ext - technology: sky130A

* Black-box entry subcircuit for sky130_fd_sc_hd__decap_12 abstract view
.subckt sky130_fd_sc_hd__decap_12 VGND VNB VPB VPWR
.ends

* Black-box entry subcircuit for sky130_fd_sc_hd__fill_1 abstract view
.subckt sky130_fd_sc_hd__fill_1 VGND VNB VPB VPWR
.ends

* Black-box entry subcircuit for sky130_fd_sc_hd__and3_1 abstract view
.subckt sky130_fd_sc_hd__and3_1 A B C VGND VNB VPB VPWR X
.ends

* Black-box entry subcircuit for sky130_fd_sc_hd__decap_4 abstract view
.subckt sky130_fd_sc_hd__decap_4 VGND VNB VPB VPWR
.ends

* Black-box entry subcircuit for sky130_fd_sc_hd__nor3_1 abstract view
.subckt sky130_fd_sc_hd__nor3_1 A B C VGND VNB VPB VPWR Y
.ends

* Black-box entry subcircuit for sky130_fd_sc_hd__decap_3 abstract view
.subckt sky130_fd_sc_hd__decap_3 VGND VNB VPB VPWR
.ends

* Black-box entry subcircuit for sky130_fd_sc_hd__buf_4 abstract view
.subckt sky130_fd_sc_hd__buf_4 A VGND VNB VPB VPWR X
.ends

* Black-box entry subcircuit for sky130_fd_sc_hd__decap_6 abstract view
.subckt sky130_fd_sc_hd__decap_6 VGND VNB VPB VPWR
.ends

* Black-box entry subcircuit for sky130_fd_sc_hd__nand3_1 abstract view
.subckt sky130_fd_sc_hd__nand3_1 A B C VGND VNB VPB VPWR Y
.ends

* Black-box entry subcircuit for sky130_fd_sc_hd__decap_8 abstract view
.subckt sky130_fd_sc_hd__decap_8 VGND VNB VPB VPWR
.ends

* Black-box entry subcircuit for sky130_fd_sc_hd__dlymetal6s2s_1 abstract view
.subckt sky130_fd_sc_hd__dlymetal6s2s_1 A VGND VNB VPB VPWR X
.ends

* Black-box entry subcircuit for sky130_fd_sc_hd__clkbuf_2 abstract view
.subckt sky130_fd_sc_hd__clkbuf_2 A VGND VNB VPB VPWR X
.ends

* Black-box entry subcircuit for sky130_fd_sc_hd__fill_2 abstract view
.subckt sky130_fd_sc_hd__fill_2 VGND VNB VPB VPWR
.ends

* Black-box entry subcircuit for sky130_fd_sc_hd__tapvpwrvgnd_1 abstract view
.subckt sky130_fd_sc_hd__tapvpwrvgnd_1 VGND VPWR
.ends

* Black-box entry subcircuit for sky130_fd_sc_hd__a211oi_1 abstract view
.subckt sky130_fd_sc_hd__a211oi_1 A1 A2 B1 C1 VGND VNB VPB VPWR Y
.ends

* Black-box entry subcircuit for sky130_fd_sc_hd__a21o_1 abstract view
.subckt sky130_fd_sc_hd__a21o_1 A1 A2 B1 VGND VNB VPB VPWR X
.ends

* Black-box entry subcircuit for sky130_fd_sc_hd__o211a_1 abstract view
.subckt sky130_fd_sc_hd__o211a_1 A1 A2 B1 C1 VGND VNB VPB VPWR X
.ends

* Black-box entry subcircuit for sky130_fd_sc_hd__clkbuf_4 abstract view
.subckt sky130_fd_sc_hd__clkbuf_4 A VGND VNB VPB VPWR X
.ends

* Black-box entry subcircuit for sky130_fd_sc_hd__nor2_1 abstract view
.subckt sky130_fd_sc_hd__nor2_1 A B VGND VNB VPB VPWR Y
.ends

* Black-box entry subcircuit for sky130_fd_sc_hd__dfxtp_1 abstract view
.subckt sky130_fd_sc_hd__dfxtp_1 CLK D VGND VNB VPB VPWR Q
.ends

* Black-box entry subcircuit for sky130_fd_sc_hd__o211ai_1 abstract view
.subckt sky130_fd_sc_hd__o211ai_1 A1 A2 B1 C1 VGND VNB VPB VPWR Y
.ends

* Black-box entry subcircuit for sky130_fd_sc_hd__a21oi_1 abstract view
.subckt sky130_fd_sc_hd__a21oi_1 A1 A2 B1 VGND VNB VPB VPWR Y
.ends

* Black-box entry subcircuit for sky130_fd_sc_hd__o21ai_1 abstract view
.subckt sky130_fd_sc_hd__o21ai_1 A1 A2 B1 VGND VNB VPB VPWR Y
.ends

* Black-box entry subcircuit for sky130_fd_sc_hd__dfxtp_2 abstract view
.subckt sky130_fd_sc_hd__dfxtp_2 CLK D VGND VNB VPB VPWR Q
.ends

* Black-box entry subcircuit for sky130_fd_sc_hd__o21a_1 abstract view
.subckt sky130_fd_sc_hd__o21a_1 A1 A2 B1 VGND VNB VPB VPWR X
.ends

* Black-box entry subcircuit for sky130_fd_sc_hd__or2_1 abstract view
.subckt sky130_fd_sc_hd__or2_1 A B VGND VNB VPB VPWR X
.ends

* Black-box entry subcircuit for sky130_fd_sc_hd__xnor2_2 abstract view
.subckt sky130_fd_sc_hd__xnor2_2 A B VGND VNB VPB VPWR Y
.ends

* Black-box entry subcircuit for sky130_fd_sc_hd__o31a_1 abstract view
.subckt sky130_fd_sc_hd__o31a_1 A1 A2 A3 B1 VGND VNB VPB VPWR X
.ends

* Black-box entry subcircuit for sky130_fd_sc_hd__clkbuf_1 abstract view
.subckt sky130_fd_sc_hd__clkbuf_1 A VGND VNB VPB VPWR X
.ends

* Black-box entry subcircuit for sky130_fd_sc_hd__a211o_1 abstract view
.subckt sky130_fd_sc_hd__a211o_1 A1 A2 B1 C1 VGND VNB VPB VPWR X
.ends

* Black-box entry subcircuit for sky130_fd_sc_hd__a21bo_1 abstract view
.subckt sky130_fd_sc_hd__a21bo_1 A1 A2 B1_N VGND VNB VPB VPWR X
.ends

* Black-box entry subcircuit for sky130_fd_sc_hd__nand2_1 abstract view
.subckt sky130_fd_sc_hd__nand2_1 A B VGND VNB VPB VPWR Y
.ends

* Black-box entry subcircuit for sky130_fd_sc_hd__inv_2 abstract view
.subckt sky130_fd_sc_hd__inv_2 A VGND VNB VPB VPWR Y
.ends

* Black-box entry subcircuit for sky130_fd_sc_hd__clkbuf_16 abstract view
.subckt sky130_fd_sc_hd__clkbuf_16 A VGND VNB VPB VPWR X
.ends

* Black-box entry subcircuit for sky130_fd_sc_hd__buf_2 abstract view
.subckt sky130_fd_sc_hd__buf_2 A VGND VNB VPB VPWR X
.ends

* Black-box entry subcircuit for sky130_fd_sc_hd__xor2_4 abstract view
.subckt sky130_fd_sc_hd__xor2_4 A B VGND VNB VPB VPWR X
.ends

* Black-box entry subcircuit for sky130_fd_sc_hd__xnor2_1 abstract view
.subckt sky130_fd_sc_hd__xnor2_1 A B VGND VNB VPB VPWR Y
.ends

* Black-box entry subcircuit for sky130_fd_sc_hd__nand2_2 abstract view
.subckt sky130_fd_sc_hd__nand2_2 A B VGND VNB VPB VPWR Y
.ends

* Black-box entry subcircuit for sky130_fd_sc_hd__dfxtp_4 abstract view
.subckt sky130_fd_sc_hd__dfxtp_4 CLK D VGND VNB VPB VPWR Q
.ends

* Black-box entry subcircuit for sky130_fd_sc_hd__nor2_2 abstract view
.subckt sky130_fd_sc_hd__nor2_2 A B VGND VNB VPB VPWR Y
.ends

* Black-box entry subcircuit for sky130_fd_sc_hd__clkdlybuf4s25_1 abstract view
.subckt sky130_fd_sc_hd__clkdlybuf4s25_1 A VGND VNB VPB VPWR X
.ends

* Black-box entry subcircuit for sky130_fd_sc_hd__diode_2 abstract view
.subckt sky130_fd_sc_hd__diode_2 DIODE VGND VNB VPB VPWR
.ends

* Black-box entry subcircuit for sky130_fd_sc_hd__o21a_2 abstract view
.subckt sky130_fd_sc_hd__o21a_2 A1 A2 B1 VGND VNB VPB VPWR X
.ends

* Black-box entry subcircuit for sky130_fd_sc_hd__clkinv_2 abstract view
.subckt sky130_fd_sc_hd__clkinv_2 A VGND VNB VPB VPWR Y
.ends

* Black-box entry subcircuit for sky130_fd_sc_hd__or3_1 abstract view
.subckt sky130_fd_sc_hd__or3_1 A B C VGND VNB VPB VPWR X
.ends

* Black-box entry subcircuit for sky130_fd_sc_hd__and2_1 abstract view
.subckt sky130_fd_sc_hd__and2_1 A B VGND VNB VPB VPWR X
.ends

* Black-box entry subcircuit for sky130_fd_sc_hd__xor2_2 abstract view
.subckt sky130_fd_sc_hd__xor2_2 A B VGND VNB VPB VPWR X
.ends

* Black-box entry subcircuit for sky130_fd_sc_hd__xnor2_4 abstract view
.subckt sky130_fd_sc_hd__xnor2_4 A B VGND VNB VPB VPWR Y
.ends

* Black-box entry subcircuit for sky130_fd_sc_hd__or2b_1 abstract view
.subckt sky130_fd_sc_hd__or2b_1 A B_N VGND VNB VPB VPWR X
.ends

* Black-box entry subcircuit for sky130_fd_sc_hd__o21bai_1 abstract view
.subckt sky130_fd_sc_hd__o21bai_1 A1 A2 B1_N VGND VNB VPB VPWR Y
.ends

* Black-box entry subcircuit for sky130_fd_sc_hd__xor2_1 abstract view
.subckt sky130_fd_sc_hd__xor2_1 A B VGND VNB VPB VPWR X
.ends

* Black-box entry subcircuit for sky130_fd_sc_hd__clkinv_4 abstract view
.subckt sky130_fd_sc_hd__clkinv_4 A VGND VNB VPB VPWR Y
.ends

* Black-box entry subcircuit for sky130_fd_sc_hd__o32a_2 abstract view
.subckt sky130_fd_sc_hd__o32a_2 A1 A2 A3 B1 B2 VGND VNB VPB VPWR X
.ends

* Black-box entry subcircuit for sky130_fd_sc_hd__or2_2 abstract view
.subckt sky130_fd_sc_hd__or2_2 A B VGND VNB VPB VPWR X
.ends

* Black-box entry subcircuit for sky130_fd_sc_hd__o21ai_4 abstract view
.subckt sky130_fd_sc_hd__o21ai_4 A1 A2 B1 VGND VNB VPB VPWR Y
.ends

* Black-box entry subcircuit for sky130_fd_sc_hd__and2b_1 abstract view
.subckt sky130_fd_sc_hd__and2b_1 A_N B VGND VNB VPB VPWR X
.ends

* Black-box entry subcircuit for sky130_fd_sc_hd__clkdlybuf4s50_1 abstract view
.subckt sky130_fd_sc_hd__clkdlybuf4s50_1 A VGND VNB VPB VPWR X
.ends

* Black-box entry subcircuit for sky130_fd_sc_hd__conb_1 abstract view
.subckt sky130_fd_sc_hd__conb_1 VGND VNB VPB VPWR HI LO
.ends

* Black-box entry subcircuit for sky130_fd_sc_hd__o31a_4 abstract view
.subckt sky130_fd_sc_hd__o31a_4 A1 A2 A3 B1 VGND VNB VPB VPWR X
.ends

* Black-box entry subcircuit for sky130_fd_sc_hd__nor2_4 abstract view
.subckt sky130_fd_sc_hd__nor2_4 A B VGND VNB VPB VPWR Y
.ends

* Black-box entry subcircuit for sky130_fd_sc_hd__buf_6 abstract view
.subckt sky130_fd_sc_hd__buf_6 A VGND VNB VPB VPWR X
.ends

* Black-box entry subcircuit for sky130_fd_sc_hd__a21oi_2 abstract view
.subckt sky130_fd_sc_hd__a21oi_2 A1 A2 B1 VGND VNB VPB VPWR Y
.ends

* Black-box entry subcircuit for sky130_fd_sc_hd__a31o_1 abstract view
.subckt sky130_fd_sc_hd__a31o_1 A1 A2 A3 B1 VGND VNB VPB VPWR X
.ends

* Black-box entry subcircuit for sky130_fd_sc_hd__buf_12 abstract view
.subckt sky130_fd_sc_hd__buf_12 A VGND VNB VPB VPWR X
.ends

* Black-box entry subcircuit for sky130_fd_sc_hd__a21oi_4 abstract view
.subckt sky130_fd_sc_hd__a21oi_4 A1 A2 B1 VGND VNB VPB VPWR Y
.ends

* Black-box entry subcircuit for sky130_fd_sc_hd__o221a_1 abstract view
.subckt sky130_fd_sc_hd__o221a_1 A1 A2 B1 B2 C1 VGND VNB VPB VPWR X
.ends

* Black-box entry subcircuit for sky130_fd_sc_hd__a21o_2 abstract view
.subckt sky130_fd_sc_hd__a21o_2 A1 A2 B1 VGND VNB VPB VPWR X
.ends

* Black-box entry subcircuit for sky130_fd_sc_hd__o21ai_2 abstract view
.subckt sky130_fd_sc_hd__o21ai_2 A1 A2 B1 VGND VNB VPB VPWR Y
.ends

* Black-box entry subcircuit for sky130_fd_sc_hd__nand2_4 abstract view
.subckt sky130_fd_sc_hd__nand2_4 A B VGND VNB VPB VPWR Y
.ends

* Black-box entry subcircuit for sky130_fd_sc_hd__a21bo_2 abstract view
.subckt sky130_fd_sc_hd__a21bo_2 A1 A2 B1_N VGND VNB VPB VPWR X
.ends

* Black-box entry subcircuit for sky130_fd_sc_hd__and2b_2 abstract view
.subckt sky130_fd_sc_hd__and2b_2 A_N B VGND VNB VPB VPWR X
.ends

* Black-box entry subcircuit for sky130_fd_sc_hd__buf_8 abstract view
.subckt sky130_fd_sc_hd__buf_8 A VGND VNB VPB VPWR X
.ends

* Black-box entry subcircuit for sky130_fd_sc_hd__and2_2 abstract view
.subckt sky130_fd_sc_hd__and2_2 A B VGND VNB VPB VPWR X
.ends

* Black-box entry subcircuit for sky130_fd_sc_hd__nand3_4 abstract view
.subckt sky130_fd_sc_hd__nand3_4 A B C VGND VNB VPB VPWR Y
.ends

* Black-box entry subcircuit for sky130_fd_sc_hd__nor3_4 abstract view
.subckt sky130_fd_sc_hd__nor3_4 A B C VGND VNB VPB VPWR Y
.ends

* Black-box entry subcircuit for sky130_fd_sc_hd__o31a_2 abstract view
.subckt sky130_fd_sc_hd__o31a_2 A1 A2 A3 B1 VGND VNB VPB VPWR X
.ends

* Black-box entry subcircuit for sky130_fd_sc_hd__nor3_2 abstract view
.subckt sky130_fd_sc_hd__nor3_2 A B C VGND VNB VPB VPWR Y
.ends

* Black-box entry subcircuit for sky130_fd_sc_hd__or2b_2 abstract view
.subckt sky130_fd_sc_hd__or2b_2 A B_N VGND VNB VPB VPWR X
.ends

* Black-box entry subcircuit for sky130_fd_sc_hd__a22oi_1 abstract view
.subckt sky130_fd_sc_hd__a22oi_1 A1 A2 B1 B2 VGND VNB VPB VPWR Y
.ends

* Black-box entry subcircuit for sky130_fd_sc_hd__o21a_4 abstract view
.subckt sky130_fd_sc_hd__o21a_4 A1 A2 B1 VGND VNB VPB VPWR X
.ends

* Black-box entry subcircuit for sky130_fd_sc_hd__clkbuf_8 abstract view
.subckt sky130_fd_sc_hd__clkbuf_8 A VGND VNB VPB VPWR X
.ends

* Black-box entry subcircuit for sky130_fd_sc_hd__o22a_1 abstract view
.subckt sky130_fd_sc_hd__o22a_1 A1 A2 B1 B2 VGND VNB VPB VPWR X
.ends

* Black-box entry subcircuit for sky130_fd_sc_hd__o21ba_1 abstract view
.subckt sky130_fd_sc_hd__o21ba_1 A1 A2 B1_N VGND VNB VPB VPWR X
.ends

* Black-box entry subcircuit for sky130_fd_sc_hd__dlygate4sd3_1 abstract view
.subckt sky130_fd_sc_hd__dlygate4sd3_1 A VGND VNB VPB VPWR X
.ends

* Black-box entry subcircuit for sky130_fd_sc_hd__a31oi_1 abstract view
.subckt sky130_fd_sc_hd__a31oi_1 A1 A2 A3 B1 VGND VNB VPB VPWR Y
.ends

* Black-box entry subcircuit for sky130_fd_sc_hd__o2bb2a_1 abstract view
.subckt sky130_fd_sc_hd__o2bb2a_1 A1_N A2_N B1 B2 VGND VNB VPB VPWR X
.ends

* Black-box entry subcircuit for sky130_fd_sc_hd__inv_6 abstract view
.subckt sky130_fd_sc_hd__inv_6 A VGND VNB VPB VPWR Y
.ends

* Black-box entry subcircuit for sky130_fd_sc_hd__inv_4 abstract view
.subckt sky130_fd_sc_hd__inv_4 A VGND VNB VPB VPWR Y
.ends

* Black-box entry subcircuit for sky130_fd_sc_hd__or3b_2 abstract view
.subckt sky130_fd_sc_hd__or3b_2 A B C_N VGND VNB VPB VPWR X
.ends

.subckt snn clk in1[0] in1[1] in1[2] in1[3] in1[4] in1[5] in1[6] in1[7] io_oeb[0]
+ io_oeb[1] io_oeb[2] io_oeb[3] io_oeb[4] io_oeb[5] io_oeb[6] io_oeb[7] io_oeb[8]
+ io_oeb[9] reset spike_out[0] spike_out[1] state1[0] state1[1] state1[2] state1[3]
+ state1[4] state1[5] state1[6] state1[7] vccd1 vssd1
XFILLER_67_531 vssd1 vssd1 vccd1 vccd1 sky130_fd_sc_hd__decap_12
XFILLER_79_391 vssd1 vssd1 vccd1 vccd1 sky130_fd_sc_hd__fill_1
X_09671_ _15408_/Q _09784_/B _09671_/C vssd1 vssd1 vccd1 vccd1 _09671_/X sky130_fd_sc_hd__and3_1
XFILLER_95_862 vssd1 vssd1 vccd1 vccd1 sky130_fd_sc_hd__fill_1
XFILLER_67_564 vssd1 vssd1 vccd1 vccd1 sky130_fd_sc_hd__decap_4
X_08622_ _15247_/Q _10939_/C _08622_/C vssd1 vssd1 vccd1 vccd1 _08622_/X sky130_fd_sc_hd__and3_1
XFILLER_54_214 vssd1 vssd1 vccd1 vccd1 sky130_fd_sc_hd__fill_1
X_08553_ _08611_/A _08553_/B _08557_/A vssd1 vssd1 vccd1 vccd1 _15235_/D sky130_fd_sc_hd__nor3_1
XFILLER_82_578 vssd1 vssd1 vccd1 vccd1 sky130_fd_sc_hd__fill_1
XFILLER_63_770 vssd1 vssd1 vccd1 vccd1 sky130_fd_sc_hd__decap_3
X_08484_ _12713_/A vssd1 vssd1 vccd1 vccd1 _13526_/A sky130_fd_sc_hd__buf_4
XFILLER_52_29 vssd1 vssd1 vccd1 vccd1 sky130_fd_sc_hd__decap_6
XFILLER_50_475 vssd1 vssd1 vccd1 vccd1 sky130_fd_sc_hd__fill_1
XFILLER_149_853 vssd1 vssd1 vccd1 vccd1 sky130_fd_sc_hd__decap_12
XFILLER_148_363 vssd1 vssd1 vccd1 vccd1 sky130_fd_sc_hd__fill_1
X_09105_ _15319_/Q _09334_/B _09105_/C vssd1 vssd1 vccd1 vccd1 _09105_/Y sky130_fd_sc_hd__nand3_1
XFILLER_148_385 vssd1 vssd1 vccd1 vccd1 sky130_fd_sc_hd__fill_1
X_09036_ _09036_/A _09036_/B _09036_/C vssd1 vssd1 vccd1 vccd1 _09037_/C sky130_fd_sc_hd__nand3_1
XFILLER_89_100 vssd1 vssd1 vccd1 vccd1 sky130_fd_sc_hd__decap_4
XFILLER_132_731 vssd1 vssd1 vccd1 vccd1 sky130_fd_sc_hd__decap_4
XFILLER_78_829 vssd1 vssd1 vccd1 vccd1 sky130_fd_sc_hd__decap_8
X_09938_ _10114_/A vssd1 vssd1 vccd1 vccd1 _09977_/A sky130_fd_sc_hd__dlymetal6s2s_1
XFILLER_104_499 vssd1 vssd1 vccd1 vccd1 sky130_fd_sc_hd__decap_8
XFILLER_131_285 vssd1 vssd1 vccd1 vccd1 sky130_fd_sc_hd__decap_4
XFILLER_58_531 vssd1 vssd1 vccd1 vccd1 sky130_fd_sc_hd__fill_1
X_09869_ _10736_/A vssd1 vssd1 vccd1 vccd1 _10102_/B sky130_fd_sc_hd__clkbuf_2
XFILLER_92_309 vssd1 vssd1 vccd1 vccd1 sky130_fd_sc_hd__fill_2
XFILLER_100_650 vssd1 vssd1 vccd1 vccd1 sky130_fd_sc_hd__decap_6
XFILLER_133_65 vssd1 vssd1 vccd1 vccd1 sky130_fd_sc_hd__fill_2
X_11900_ _12129_/A vssd1 vssd1 vccd1 vccd1 _11941_/A sky130_fd_sc_hd__clkbuf_2
XFILLER_73_512 vssd1 vssd1 vccd1 vccd1 sky130_fd_sc_hd__decap_8
XFILLER_100_683 vssd1 vssd1 vccd1 vccd1 sky130_fd_sc_hd__decap_4
XFILLER_45_225 vssd1 vssd1 vccd1 vccd1 sky130_fd_sc_hd__decap_4
X_12880_ _12934_/A _12880_/B _12884_/A vssd1 vssd1 vccd1 vccd1 _15909_/D sky130_fd_sc_hd__nor3_1
XTAP_2501 vssd1 vccd1 sky130_fd_sc_hd__tapvpwrvgnd_1
XFILLER_73_545 vssd1 vssd1 vccd1 vccd1 sky130_fd_sc_hd__decap_8
XTAP_2512 vssd1 vccd1 sky130_fd_sc_hd__tapvpwrvgnd_1
XFILLER_45_247 vssd1 vssd1 vccd1 vccd1 sky130_fd_sc_hd__decap_6
XFILLER_73_556 vssd1 vssd1 vccd1 vccd1 sky130_fd_sc_hd__decap_4
XTAP_2523 vssd1 vccd1 sky130_fd_sc_hd__tapvpwrvgnd_1
XTAP_2534 vssd1 vccd1 sky130_fd_sc_hd__tapvpwrvgnd_1
X_11831_ _11829_/Y _11824_/C _11836_/A _11828_/Y vssd1 vssd1 vccd1 vccd1 _11836_/B
+ sky130_fd_sc_hd__a211oi_1
XFILLER_73_567 vssd1 vssd1 vccd1 vccd1 sky130_fd_sc_hd__decap_8
XTAP_2545 vssd1 vccd1 sky130_fd_sc_hd__tapvpwrvgnd_1
XTAP_1800 vssd1 vccd1 sky130_fd_sc_hd__tapvpwrvgnd_1
XTAP_2556 vssd1 vccd1 sky130_fd_sc_hd__tapvpwrvgnd_1
XTAP_1811 vssd1 vccd1 sky130_fd_sc_hd__tapvpwrvgnd_1
XTAP_1822 vssd1 vccd1 sky130_fd_sc_hd__tapvpwrvgnd_1
XTAP_2567 vssd1 vccd1 sky130_fd_sc_hd__tapvpwrvgnd_1
XFILLER_26_74 vssd1 vssd1 vccd1 vccd1 sky130_fd_sc_hd__decap_8
XFILLER_14_612 vssd1 vssd1 vccd1 vccd1 sky130_fd_sc_hd__decap_4
XTAP_2578 vssd1 vccd1 sky130_fd_sc_hd__tapvpwrvgnd_1
XFILLER_13_100 vssd1 vssd1 vccd1 vccd1 sky130_fd_sc_hd__decap_4
XTAP_1833 vssd1 vccd1 sky130_fd_sc_hd__tapvpwrvgnd_1
X_14550_ _14551_/B _14551_/C _14551_/A vssd1 vssd1 vccd1 vccd1 _14552_/B sky130_fd_sc_hd__a21o_1
XTAP_2589 vssd1 vccd1 sky130_fd_sc_hd__tapvpwrvgnd_1
X_11762_ _15733_/Q _11938_/B _11767_/C vssd1 vssd1 vccd1 vccd1 _11762_/Y sky130_fd_sc_hd__nand3_1
XTAP_1844 vssd1 vccd1 sky130_fd_sc_hd__tapvpwrvgnd_1
XFILLER_14_645 vssd1 vssd1 vccd1 vccd1 sky130_fd_sc_hd__decap_4
XTAP_1855 vssd1 vccd1 sky130_fd_sc_hd__tapvpwrvgnd_1
XTAP_1866 vssd1 vccd1 sky130_fd_sc_hd__tapvpwrvgnd_1
X_13501_ _13507_/A _13499_/Y _13500_/Y _13495_/C vssd1 vssd1 vccd1 vccd1 _13503_/B
+ sky130_fd_sc_hd__o211a_1
X_10713_ _11634_/A vssd1 vssd1 vccd1 vccd1 _10999_/B sky130_fd_sc_hd__clkbuf_4
XFILLER_14_667 vssd1 vssd1 vccd1 vccd1 sky130_fd_sc_hd__decap_4
XTAP_1877 vssd1 vccd1 sky130_fd_sc_hd__tapvpwrvgnd_1
XFILLER_41_464 vssd1 vssd1 vccd1 vccd1 sky130_fd_sc_hd__decap_4
XTAP_1888 vssd1 vccd1 sky130_fd_sc_hd__tapvpwrvgnd_1
X_14481_ _14481_/A _14481_/B vssd1 vssd1 vccd1 vccd1 _14481_/Y sky130_fd_sc_hd__nor2_1
X_11693_ _11708_/A _11693_/B _11693_/C vssd1 vssd1 vccd1 vccd1 _11694_/A sky130_fd_sc_hd__and3_1
XTAP_1899 vssd1 vccd1 sky130_fd_sc_hd__tapvpwrvgnd_1
X_16220_ _16362_/CLK _16220_/D vssd1 vssd1 vccd1 vccd1 _16220_/Q sky130_fd_sc_hd__dfxtp_1
X_13432_ _13430_/X _13431_/Y _13427_/B _13428_/C vssd1 vssd1 vccd1 vccd1 _13434_/B
+ sky130_fd_sc_hd__o211ai_1
X_10644_ _15559_/Q _10817_/B _10654_/C vssd1 vssd1 vccd1 vccd1 _10651_/A sky130_fd_sc_hd__and3_1
XFILLER_9_148 vssd1 vssd1 vccd1 vccd1 sky130_fd_sc_hd__decap_8
XFILLER_6_811 vssd1 vssd1 vccd1 vccd1 sky130_fd_sc_hd__fill_1
X_16151_ _16169_/CLK _16151_/D vssd1 vssd1 vccd1 vccd1 _16151_/Q sky130_fd_sc_hd__dfxtp_1
XFILLER_139_374 vssd1 vssd1 vccd1 vccd1 sky130_fd_sc_hd__decap_4
X_10575_ _10573_/A _10573_/B _10574_/X vssd1 vssd1 vccd1 vccd1 _15546_/D sky130_fd_sc_hd__a21oi_1
X_13363_ _13362_/X _13360_/C _13206_/X vssd1 vssd1 vccd1 vccd1 _13363_/Y sky130_fd_sc_hd__o21ai_1
X_15102_ _16348_/Q _15171_/B _15107_/C vssd1 vssd1 vccd1 vccd1 _15110_/A sky130_fd_sc_hd__and3_1
X_12314_ _12314_/A _12314_/B _12314_/C vssd1 vssd1 vccd1 vccd1 _12315_/C sky130_fd_sc_hd__nand3_1
X_16082_ _16224_/CLK _16082_/D vssd1 vssd1 vccd1 vccd1 _16082_/Q sky130_fd_sc_hd__dfxtp_2
XFILLER_115_709 vssd1 vssd1 vccd1 vccd1 sky130_fd_sc_hd__decap_4
XFILLER_5_343 vssd1 vssd1 vccd1 vccd1 sky130_fd_sc_hd__decap_4
X_13294_ _13300_/A _13292_/Y _13293_/Y _13289_/C vssd1 vssd1 vccd1 vccd1 _13296_/B
+ sky130_fd_sc_hd__o211a_1
XFILLER_108_772 vssd1 vssd1 vccd1 vccd1 sky130_fd_sc_hd__decap_4
X_15033_ _15039_/A _15032_/Y _15027_/B _15028_/C vssd1 vssd1 vccd1 vccd1 _15035_/B
+ sky130_fd_sc_hd__o211a_1
X_12245_ _12281_/A _12245_/B _12245_/C vssd1 vssd1 vccd1 vccd1 _12246_/A sky130_fd_sc_hd__and3_1
X_12176_ _12174_/Y _12170_/C _12181_/A _12173_/Y vssd1 vssd1 vccd1 vccd1 _12181_/B
+ sky130_fd_sc_hd__a211oi_1
XFILLER_123_764 vssd1 vssd1 vccd1 vccd1 sky130_fd_sc_hd__decap_12
XFILLER_96_626 vssd1 vssd1 vccd1 vccd1 sky130_fd_sc_hd__decap_12
XFILLER_95_103 vssd1 vssd1 vccd1 vccd1 sky130_fd_sc_hd__decap_8
X_11127_ _15635_/Q _11136_/C _10897_/X vssd1 vssd1 vccd1 vccd1 _11127_/Y sky130_fd_sc_hd__a21oi_1
XFILLER_49_520 vssd1 vssd1 vccd1 vccd1 sky130_fd_sc_hd__decap_4
XFILLER_77_851 vssd1 vssd1 vccd1 vccd1 sky130_fd_sc_hd__fill_1
X_11058_ _15624_/Q _11289_/B _11058_/C vssd1 vssd1 vccd1 vccd1 _11058_/X sky130_fd_sc_hd__and3_1
X_15935_ _15935_/CLK _15935_/D vssd1 vssd1 vccd1 vccd1 _15935_/Q sky130_fd_sc_hd__dfxtp_1
XFILLER_49_564 vssd1 vssd1 vccd1 vccd1 sky130_fd_sc_hd__decap_4
X_10009_ _10064_/A _10009_/B _10013_/A vssd1 vssd1 vccd1 vccd1 _15459_/D sky130_fd_sc_hd__nor3_1
XFILLER_37_737 vssd1 vssd1 vccd1 vccd1 sky130_fd_sc_hd__decap_4
XFILLER_49_597 vssd1 vssd1 vccd1 vccd1 sky130_fd_sc_hd__decap_6
X_15866_ _07603_/A _15866_/D vssd1 vssd1 vccd1 vccd1 _15866_/Q sky130_fd_sc_hd__dfxtp_1
XFILLER_91_320 vssd1 vssd1 vccd1 vccd1 sky130_fd_sc_hd__decap_4
XFILLER_91_342 vssd1 vssd1 vccd1 vccd1 sky130_fd_sc_hd__decap_4
XFILLER_91_353 vssd1 vssd1 vccd1 vccd1 sky130_fd_sc_hd__fill_1
X_14817_ _14814_/X _14813_/A _14816_/Y vssd1 vssd1 vccd1 vccd1 _16277_/D sky130_fd_sc_hd__o21a_1
X_15797_ _15195_/Q _15797_/D vssd1 vssd1 vccd1 vccd1 _15797_/Q sky130_fd_sc_hd__dfxtp_1
XFILLER_45_792 vssd1 vssd1 vccd1 vccd1 sky130_fd_sc_hd__decap_6
XFILLER_91_397 vssd1 vssd1 vccd1 vccd1 sky130_fd_sc_hd__fill_1
X_14748_ _14748_/A _14748_/B _14748_/C vssd1 vssd1 vccd1 vccd1 _14749_/A sky130_fd_sc_hd__and3_1
X_14679_ _14679_/A _14679_/B vssd1 vssd1 vccd1 vccd1 _14682_/A sky130_fd_sc_hd__or2_1
XFILLER_20_615 vssd1 vssd1 vccd1 vccd1 sky130_fd_sc_hd__decap_12
XFILLER_149_149 vssd1 vssd1 vccd1 vccd1 sky130_fd_sc_hd__fill_2
XFILLER_9_671 vssd1 vssd1 vccd1 vccd1 sky130_fd_sc_hd__fill_1
X_16349_ _16358_/CLK _16349_/D vssd1 vssd1 vccd1 vccd1 _16349_/Q sky130_fd_sc_hd__dfxtp_1
XFILLER_9_693 vssd1 vssd1 vccd1 vccd1 sky130_fd_sc_hd__decap_4
XFILLER_146_867 vssd1 vssd1 vccd1 vccd1 sky130_fd_sc_hd__fill_1
XFILLER_145_388 vssd1 vssd1 vccd1 vccd1 sky130_fd_sc_hd__decap_4
XFILLER_145_399 vssd1 vssd1 vccd1 vccd1 sky130_fd_sc_hd__decap_4
XFILLER_114_720 vssd1 vssd1 vccd1 vccd1 sky130_fd_sc_hd__decap_4
XFILLER_114_742 vssd1 vssd1 vccd1 vccd1 sky130_fd_sc_hd__decap_4
XFILLER_113_230 vssd1 vssd1 vccd1 vccd1 sky130_fd_sc_hd__decap_8
XFILLER_99_464 vssd1 vssd1 vccd1 vccd1 sky130_fd_sc_hd__decap_4
XFILLER_141_572 vssd1 vssd1 vccd1 vccd1 sky130_fd_sc_hd__fill_1
X_07984_ _07984_/A _08177_/A vssd1 vssd1 vccd1 vccd1 _07985_/B sky130_fd_sc_hd__xnor2_2
XFILLER_86_136 vssd1 vssd1 vccd1 vccd1 sky130_fd_sc_hd__decap_4
XFILLER_68_851 vssd1 vssd1 vccd1 vccd1 sky130_fd_sc_hd__decap_4
X_09723_ _09724_/B _09724_/C _09724_/A vssd1 vssd1 vccd1 vccd1 _09725_/B sky130_fd_sc_hd__a21o_1
XFILLER_86_158 vssd1 vssd1 vccd1 vccd1 sky130_fd_sc_hd__decap_4
XFILLER_67_372 vssd1 vssd1 vccd1 vccd1 sky130_fd_sc_hd__decap_8
XFILLER_83_821 vssd1 vssd1 vccd1 vccd1 sky130_fd_sc_hd__decap_8
X_09654_ _09690_/A _09654_/B _09654_/C vssd1 vssd1 vccd1 vccd1 _09655_/A sky130_fd_sc_hd__and3_1
XFILLER_55_556 vssd1 vssd1 vccd1 vccd1 sky130_fd_sc_hd__decap_4
X_08605_ _15260_/Q _15259_/Q _15258_/Q _08604_/X vssd1 vssd1 vccd1 vccd1 _15243_/D
+ sky130_fd_sc_hd__o31a_1
X_09585_ _15394_/Q _09644_/B _09585_/C vssd1 vssd1 vccd1 vccd1 _09594_/B sky130_fd_sc_hd__and3_1
XFILLER_63_17 vssd1 vssd1 vccd1 vccd1 sky130_fd_sc_hd__fill_1
XFILLER_42_206 vssd1 vssd1 vccd1 vccd1 sky130_fd_sc_hd__decap_4
XTAP_1107 vssd1 vccd1 sky130_fd_sc_hd__tapvpwrvgnd_1
XTAP_1118 vssd1 vccd1 sky130_fd_sc_hd__tapvpwrvgnd_1
XTAP_1129 vssd1 vccd1 sky130_fd_sc_hd__tapvpwrvgnd_1
XFILLER_70_537 vssd1 vssd1 vccd1 vccd1 sky130_fd_sc_hd__decap_4
X_08536_ _08536_/A _08536_/B vssd1 vssd1 vccd1 vccd1 _08540_/C sky130_fd_sc_hd__nor2_1
XFILLER_70_548 vssd1 vssd1 vccd1 vccd1 sky130_fd_sc_hd__decap_6
XFILLER_51_740 vssd1 vssd1 vccd1 vccd1 sky130_fd_sc_hd__fill_1
XFILLER_50_250 vssd1 vssd1 vccd1 vccd1 sky130_fd_sc_hd__fill_2
XFILLER_51_773 vssd1 vssd1 vccd1 vccd1 sky130_fd_sc_hd__decap_4
X_08467_ _08467_/A vssd1 vssd1 vccd1 vccd1 _15221_/D sky130_fd_sc_hd__clkbuf_1
XFILLER_11_615 vssd1 vssd1 vccd1 vccd1 sky130_fd_sc_hd__fill_1
XFILLER_23_486 vssd1 vssd1 vccd1 vccd1 sky130_fd_sc_hd__decap_8
XFILLER_50_261 vssd1 vssd1 vccd1 vccd1 sky130_fd_sc_hd__fill_1
XFILLER_50_283 vssd1 vssd1 vccd1 vccd1 sky130_fd_sc_hd__fill_1
XFILLER_10_125 vssd1 vssd1 vccd1 vccd1 sky130_fd_sc_hd__decap_6
X_08398_ _08372_/A _08378_/A _08411_/A _08397_/Y vssd1 vssd1 vccd1 vccd1 _08400_/B
+ sky130_fd_sc_hd__a211o_1
XFILLER_10_136 vssd1 vssd1 vccd1 vccd1 sky130_fd_sc_hd__decap_4
XFILLER_109_503 vssd1 vssd1 vccd1 vccd1 sky130_fd_sc_hd__fill_1
XFILLER_109_536 vssd1 vssd1 vccd1 vccd1 sky130_fd_sc_hd__decap_8
X_10360_ _10360_/A _10360_/B _10360_/C vssd1 vssd1 vccd1 vccd1 _10361_/C sky130_fd_sc_hd__nand3_1
X_09019_ _14372_/A vssd1 vssd1 vccd1 vccd1 _09019_/X sky130_fd_sc_hd__clkbuf_2
X_10291_ _10312_/C vssd1 vssd1 vccd1 vccd1 _10325_/C sky130_fd_sc_hd__dlymetal6s2s_1
X_12030_ _12030_/A _12030_/B _12030_/C vssd1 vssd1 vccd1 vccd1 _12031_/C sky130_fd_sc_hd__nand3_1
XFILLER_120_701 vssd1 vssd1 vccd1 vccd1 sky130_fd_sc_hd__fill_2
XFILLER_132_572 vssd1 vssd1 vccd1 vccd1 sky130_fd_sc_hd__decap_4
XFILLER_132_594 vssd1 vssd1 vccd1 vccd1 sky130_fd_sc_hd__decap_4
XFILLER_144_53 vssd1 vssd1 vccd1 vccd1 sky130_fd_sc_hd__decap_12
XFILLER_58_350 vssd1 vssd1 vccd1 vccd1 sky130_fd_sc_hd__decap_4
XFILLER_65_309 vssd1 vssd1 vccd1 vccd1 sky130_fd_sc_hd__decap_8
XFILLER_77_169 vssd1 vssd1 vccd1 vccd1 sky130_fd_sc_hd__decap_3
X_13981_ _16103_/Q _13981_/B _13990_/C vssd1 vssd1 vccd1 vccd1 _13985_/B sky130_fd_sc_hd__nand3_1
XFILLER_120_789 vssd1 vssd1 vccd1 vccd1 sky130_fd_sc_hd__decap_4
X_15720_ _15794_/CLK _15720_/D vssd1 vssd1 vccd1 vccd1 _15720_/Q sky130_fd_sc_hd__dfxtp_2
X_12932_ _15919_/Q _12968_/C _12767_/X vssd1 vssd1 vccd1 vccd1 _12934_/B sky130_fd_sc_hd__a21oi_1
XFILLER_37_51 vssd1 vssd1 vccd1 vccd1 sky130_fd_sc_hd__decap_4
XFILLER_92_139 vssd1 vssd1 vccd1 vccd1 sky130_fd_sc_hd__fill_1
X_15651_ _15655_/CLK _15651_/D vssd1 vssd1 vccd1 vccd1 _15651_/Q sky130_fd_sc_hd__dfxtp_1
XFILLER_46_567 vssd1 vssd1 vccd1 vccd1 sky130_fd_sc_hd__decap_4
XTAP_2320 vssd1 vccd1 sky130_fd_sc_hd__tapvpwrvgnd_1
XFILLER_34_718 vssd1 vssd1 vccd1 vccd1 sky130_fd_sc_hd__fill_1
X_12863_ _12869_/B _12863_/B vssd1 vssd1 vccd1 vccd1 _12865_/A sky130_fd_sc_hd__or2_1
XFILLER_46_589 vssd1 vssd1 vccd1 vccd1 sky130_fd_sc_hd__decap_6
XTAP_2331 vssd1 vccd1 sky130_fd_sc_hd__tapvpwrvgnd_1
XTAP_2342 vssd1 vccd1 sky130_fd_sc_hd__tapvpwrvgnd_1
X_14602_ _14601_/X _14600_/Y _14648_/A vssd1 vssd1 vccd1 vccd1 _14602_/Y sky130_fd_sc_hd__a21oi_1
XTAP_2353 vssd1 vccd1 sky130_fd_sc_hd__tapvpwrvgnd_1
X_11814_ _15741_/Q _11986_/B _11814_/C vssd1 vssd1 vccd1 vccd1 _11814_/Y sky130_fd_sc_hd__nand3_1
XTAP_2364 vssd1 vccd1 sky130_fd_sc_hd__tapvpwrvgnd_1
X_15582_ _15194_/Q _15582_/D vssd1 vssd1 vccd1 vccd1 _15582_/Q sky130_fd_sc_hd__dfxtp_1
XTAP_1630 vssd1 vccd1 sky130_fd_sc_hd__tapvpwrvgnd_1
XTAP_2375 vssd1 vccd1 sky130_fd_sc_hd__tapvpwrvgnd_1
X_12794_ _12791_/X _12792_/Y _12793_/Y _12789_/C vssd1 vssd1 vccd1 vccd1 _12796_/B
+ sky130_fd_sc_hd__o211ai_1
XTAP_1641 vssd1 vccd1 sky130_fd_sc_hd__tapvpwrvgnd_1
XTAP_2386 vssd1 vccd1 sky130_fd_sc_hd__tapvpwrvgnd_1
XTAP_1652 vssd1 vccd1 sky130_fd_sc_hd__tapvpwrvgnd_1
XTAP_2397 vssd1 vccd1 sky130_fd_sc_hd__tapvpwrvgnd_1
XFILLER_14_453 vssd1 vssd1 vccd1 vccd1 sky130_fd_sc_hd__decap_4
XFILLER_42_762 vssd1 vssd1 vccd1 vccd1 sky130_fd_sc_hd__decap_6
XTAP_1663 vssd1 vccd1 sky130_fd_sc_hd__tapvpwrvgnd_1
X_14533_ _14533_/A _14533_/B vssd1 vssd1 vccd1 vccd1 _14533_/Y sky130_fd_sc_hd__nor2_1
X_11745_ _15732_/Q _11863_/B _11745_/C vssd1 vssd1 vccd1 vccd1 _11745_/X sky130_fd_sc_hd__and3_1
XTAP_1674 vssd1 vccd1 sky130_fd_sc_hd__tapvpwrvgnd_1
XTAP_1685 vssd1 vccd1 sky130_fd_sc_hd__tapvpwrvgnd_1
XTAP_1696 vssd1 vccd1 sky130_fd_sc_hd__tapvpwrvgnd_1
X_14464_ _14474_/C vssd1 vssd1 vccd1 vccd1 _14486_/C sky130_fd_sc_hd__dlymetal6s2s_1
X_11676_ _11676_/A vssd1 vssd1 vccd1 vccd1 _11689_/C sky130_fd_sc_hd__dlymetal6s2s_1
X_16203_ _16204_/CLK _16203_/D vssd1 vssd1 vccd1 vccd1 _16203_/Q sky130_fd_sc_hd__dfxtp_1
X_13415_ _16016_/Q _16015_/Q _16014_/Q _13209_/X vssd1 vssd1 vccd1 vccd1 _15999_/D
+ sky130_fd_sc_hd__o31a_1
X_10627_ _10627_/A _10627_/B vssd1 vssd1 vccd1 vccd1 _10628_/B sky130_fd_sc_hd__nor2_1
X_14395_ _14395_/A vssd1 vssd1 vccd1 vccd1 _14395_/X sky130_fd_sc_hd__clkbuf_2
XFILLER_139_193 vssd1 vssd1 vccd1 vccd1 sky130_fd_sc_hd__decap_6
X_16134_ _16143_/CLK _16134_/D vssd1 vssd1 vccd1 vccd1 _16134_/Q sky130_fd_sc_hd__dfxtp_1
X_13346_ _13352_/A _13343_/Y _13345_/Y _13339_/C vssd1 vssd1 vccd1 vccd1 _13348_/B
+ sky130_fd_sc_hd__o211a_1
X_10558_ _10556_/Y _10552_/C _10554_/X _10555_/Y vssd1 vssd1 vccd1 vccd1 _10559_/C
+ sky130_fd_sc_hd__a211o_1
X_16065_ _16075_/CLK _16065_/D vssd1 vssd1 vccd1 vccd1 _16065_/Q sky130_fd_sc_hd__dfxtp_1
XFILLER_115_539 vssd1 vssd1 vccd1 vccd1 sky130_fd_sc_hd__decap_6
XFILLER_127_399 vssd1 vssd1 vccd1 vccd1 sky130_fd_sc_hd__decap_6
X_13277_ _14080_/B vssd1 vssd1 vccd1 vccd1 _13277_/X sky130_fd_sc_hd__clkbuf_4
X_10489_ _10489_/A vssd1 vssd1 vccd1 vccd1 _15533_/D sky130_fd_sc_hd__clkbuf_1
X_15016_ _15013_/X _15012_/A _15015_/Y vssd1 vssd1 vccd1 vccd1 _16322_/D sky130_fd_sc_hd__o21a_1
X_12228_ _15807_/Q _12228_/B _12228_/C vssd1 vssd1 vccd1 vccd1 _12238_/A sky130_fd_sc_hd__and3_1
XFILLER_123_561 vssd1 vssd1 vccd1 vccd1 sky130_fd_sc_hd__decap_4
X_12159_ _15795_/Q _12270_/B _12159_/C vssd1 vssd1 vccd1 vccd1 _12159_/Y sky130_fd_sc_hd__nand3_1
XFILLER_68_136 vssd1 vssd1 vccd1 vccd1 sky130_fd_sc_hd__decap_4
XFILLER_56_309 vssd1 vssd1 vccd1 vccd1 sky130_fd_sc_hd__decap_12
XFILLER_68_169 vssd1 vssd1 vccd1 vccd1 sky130_fd_sc_hd__decap_4
XFILLER_111_789 vssd1 vssd1 vccd1 vccd1 sky130_fd_sc_hd__decap_8
XFILLER_37_512 vssd1 vssd1 vccd1 vccd1 sky130_fd_sc_hd__decap_4
XFILLER_65_821 vssd1 vssd1 vccd1 vccd1 sky130_fd_sc_hd__decap_4
XFILLER_49_383 vssd1 vssd1 vccd1 vccd1 sky130_fd_sc_hd__fill_1
X_15918_ _15196_/Q _15918_/D vssd1 vssd1 vccd1 vccd1 _15918_/Q sky130_fd_sc_hd__dfxtp_2
XFILLER_64_320 vssd1 vssd1 vccd1 vccd1 sky130_fd_sc_hd__fill_1
XFILLER_37_556 vssd1 vssd1 vccd1 vccd1 sky130_fd_sc_hd__decap_4
XFILLER_94_90 vssd1 vssd1 vccd1 vccd1 sky130_fd_sc_hd__decap_4
XFILLER_80_813 vssd1 vssd1 vccd1 vccd1 sky130_fd_sc_hd__decap_12
X_15849_ _15907_/CLK _15849_/D vssd1 vssd1 vccd1 vccd1 _15849_/Q sky130_fd_sc_hd__dfxtp_1
XFILLER_37_589 vssd1 vssd1 vccd1 vccd1 sky130_fd_sc_hd__decap_4
XFILLER_24_217 vssd1 vssd1 vccd1 vccd1 sky130_fd_sc_hd__fill_1
XFILLER_18_781 vssd1 vssd1 vccd1 vccd1 sky130_fd_sc_hd__decap_6
XFILLER_92_695 vssd1 vssd1 vccd1 vccd1 sky130_fd_sc_hd__decap_4
XFILLER_24_228 vssd1 vssd1 vccd1 vccd1 sky130_fd_sc_hd__decap_4
X_09370_ _09403_/C vssd1 vssd1 vccd1 vccd1 _09411_/C sky130_fd_sc_hd__clkbuf_2
XFILLER_52_548 vssd1 vssd1 vccd1 vccd1 sky130_fd_sc_hd__decap_3