* NGSPICE file created from wrapped_snn.ext - technology: sky130A

* Black-box entry subcircuit for sky130_fd_sc_hd__fill_1 abstract view
.subckt sky130_fd_sc_hd__fill_1 VGND VNB VPB VPWR
.ends

* Black-box entry subcircuit for sky130_fd_sc_hd__a21o_1 abstract view
.subckt sky130_fd_sc_hd__a21o_1 A1 A2 B1 VGND VNB VPB VPWR X
.ends

* Black-box entry subcircuit for sky130_fd_sc_hd__fill_2 abstract view
.subckt sky130_fd_sc_hd__fill_2 VGND VNB VPB VPWR
.ends

* Black-box entry subcircuit for sky130_fd_sc_hd__decap_12 abstract view
.subckt sky130_fd_sc_hd__decap_12 VGND VNB VPB VPWR
.ends

* Black-box entry subcircuit for sky130_fd_sc_hd__nor2_1 abstract view
.subckt sky130_fd_sc_hd__nor2_1 A B VGND VNB VPB VPWR Y
.ends

* Black-box entry subcircuit for sky130_fd_sc_hd__decap_4 abstract view
.subckt sky130_fd_sc_hd__decap_4 VGND VNB VPB VPWR
.ends

* Black-box entry subcircuit for sky130_fd_sc_hd__decap_8 abstract view
.subckt sky130_fd_sc_hd__decap_8 VGND VNB VPB VPWR
.ends

* Black-box entry subcircuit for sky130_fd_sc_hd__buf_2 abstract view
.subckt sky130_fd_sc_hd__buf_2 A VGND VNB VPB VPWR X
.ends

* Black-box entry subcircuit for sky130_fd_sc_hd__inv_2 abstract view
.subckt sky130_fd_sc_hd__inv_2 A VGND VNB VPB VPWR Y
.ends

* Black-box entry subcircuit for sky130_fd_sc_hd__and3_1 abstract view
.subckt sky130_fd_sc_hd__and3_1 A B C VGND VNB VPB VPWR X
.ends

* Black-box entry subcircuit for sky130_fd_sc_hd__o31a_1 abstract view
.subckt sky130_fd_sc_hd__o31a_1 A1 A2 A3 B1 VGND VNB VPB VPWR X
.ends

* Black-box entry subcircuit for sky130_fd_sc_hd__decap_3 abstract view
.subckt sky130_fd_sc_hd__decap_3 VGND VNB VPB VPWR
.ends

* Black-box entry subcircuit for sky130_fd_sc_hd__decap_6 abstract view
.subckt sky130_fd_sc_hd__decap_6 VGND VNB VPB VPWR
.ends

* Black-box entry subcircuit for sky130_fd_sc_hd__nand3_1 abstract view
.subckt sky130_fd_sc_hd__nand3_1 A B C VGND VNB VPB VPWR Y
.ends

* Black-box entry subcircuit for sky130_fd_sc_hd__tapvpwrvgnd_1 abstract view
.subckt sky130_fd_sc_hd__tapvpwrvgnd_1 VGND VPWR
.ends

* Black-box entry subcircuit for sky130_fd_sc_hd__a211o_1 abstract view
.subckt sky130_fd_sc_hd__a211o_1 A1 A2 B1 C1 VGND VNB VPB VPWR X
.ends

* Black-box entry subcircuit for sky130_fd_sc_hd__a21oi_1 abstract view
.subckt sky130_fd_sc_hd__a21oi_1 A1 A2 B1 VGND VNB VPB VPWR Y
.ends

* Black-box entry subcircuit for sky130_fd_sc_hd__o21a_1 abstract view
.subckt sky130_fd_sc_hd__o21a_1 A1 A2 B1 VGND VNB VPB VPWR X
.ends

* Black-box entry subcircuit for sky130_fd_sc_hd__dfxtp_1 abstract view
.subckt sky130_fd_sc_hd__dfxtp_1 CLK D VGND VNB VPB VPWR Q
.ends

* Black-box entry subcircuit for sky130_fd_sc_hd__or3_1 abstract view
.subckt sky130_fd_sc_hd__or3_1 A B C VGND VNB VPB VPWR X
.ends

* Black-box entry subcircuit for sky130_fd_sc_hd__nor3_1 abstract view
.subckt sky130_fd_sc_hd__nor3_1 A B C VGND VNB VPB VPWR Y
.ends

* Black-box entry subcircuit for sky130_fd_sc_hd__clkbuf_1 abstract view
.subckt sky130_fd_sc_hd__clkbuf_1 A VGND VNB VPB VPWR X
.ends

* Black-box entry subcircuit for sky130_fd_sc_hd__a211oi_1 abstract view
.subckt sky130_fd_sc_hd__a211oi_1 A1 A2 B1 C1 VGND VNB VPB VPWR Y
.ends

* Black-box entry subcircuit for sky130_fd_sc_hd__dlymetal6s2s_1 abstract view
.subckt sky130_fd_sc_hd__dlymetal6s2s_1 A VGND VNB VPB VPWR X
.ends

* Black-box entry subcircuit for sky130_fd_sc_hd__o211ai_1 abstract view
.subckt sky130_fd_sc_hd__o211ai_1 A1 A2 B1 C1 VGND VNB VPB VPWR Y
.ends

* Black-box entry subcircuit for sky130_fd_sc_hd__dfxtp_2 abstract view
.subckt sky130_fd_sc_hd__dfxtp_2 CLK D VGND VNB VPB VPWR Q
.ends

* Black-box entry subcircuit for sky130_fd_sc_hd__xnor2_1 abstract view
.subckt sky130_fd_sc_hd__xnor2_1 A B VGND VNB VPB VPWR Y
.ends

* Black-box entry subcircuit for sky130_fd_sc_hd__a21o_2 abstract view
.subckt sky130_fd_sc_hd__a21o_2 A1 A2 B1 VGND VNB VPB VPWR X
.ends

* Black-box entry subcircuit for sky130_fd_sc_hd__and2_2 abstract view
.subckt sky130_fd_sc_hd__and2_2 A B VGND VNB VPB VPWR X
.ends

* Black-box entry subcircuit for sky130_fd_sc_hd__xor2_4 abstract view
.subckt sky130_fd_sc_hd__xor2_4 A B VGND VNB VPB VPWR X
.ends

* Black-box entry subcircuit for sky130_fd_sc_hd__clkbuf_2 abstract view
.subckt sky130_fd_sc_hd__clkbuf_2 A VGND VNB VPB VPWR X
.ends

* Black-box entry subcircuit for sky130_fd_sc_hd__buf_6 abstract view
.subckt sky130_fd_sc_hd__buf_6 A VGND VNB VPB VPWR X
.ends

* Black-box entry subcircuit for sky130_fd_sc_hd__conb_1 abstract view
.subckt sky130_fd_sc_hd__conb_1 VGND VNB VPB VPWR HI LO
.ends

* Black-box entry subcircuit for sky130_fd_sc_hd__o211a_1 abstract view
.subckt sky130_fd_sc_hd__o211a_1 A1 A2 B1 C1 VGND VNB VPB VPWR X
.ends

* Black-box entry subcircuit for sky130_fd_sc_hd__nor2_2 abstract view
.subckt sky130_fd_sc_hd__nor2_2 A B VGND VNB VPB VPWR Y
.ends

* Black-box entry subcircuit for sky130_fd_sc_hd__or2_1 abstract view
.subckt sky130_fd_sc_hd__or2_1 A B VGND VNB VPB VPWR X
.ends

* Black-box entry subcircuit for sky130_fd_sc_hd__xnor2_4 abstract view
.subckt sky130_fd_sc_hd__xnor2_4 A B VGND VNB VPB VPWR Y
.ends

* Black-box entry subcircuit for sky130_fd_sc_hd__o21ba_1 abstract view
.subckt sky130_fd_sc_hd__o21ba_1 A1 A2 B1_N VGND VNB VPB VPWR X
.ends

* Black-box entry subcircuit for sky130_fd_sc_hd__ebufn_8 abstract view
.subckt sky130_fd_sc_hd__ebufn_8 A TE_B VGND VNB VPB VPWR Z
.ends

* Black-box entry subcircuit for sky130_fd_sc_hd__a31o_1 abstract view
.subckt sky130_fd_sc_hd__a31o_1 A1 A2 A3 B1 VGND VNB VPB VPWR X
.ends

* Black-box entry subcircuit for sky130_fd_sc_hd__o21ai_2 abstract view
.subckt sky130_fd_sc_hd__o21ai_2 A1 A2 B1 VGND VNB VPB VPWR Y
.ends

* Black-box entry subcircuit for sky130_fd_sc_hd__buf_4 abstract view
.subckt sky130_fd_sc_hd__buf_4 A VGND VNB VPB VPWR X
.ends

* Black-box entry subcircuit for sky130_fd_sc_hd__or2b_1 abstract view
.subckt sky130_fd_sc_hd__or2b_1 A B_N VGND VNB VPB VPWR X
.ends

* Black-box entry subcircuit for sky130_fd_sc_hd__xnor2_2 abstract view
.subckt sky130_fd_sc_hd__xnor2_2 A B VGND VNB VPB VPWR Y
.ends

* Black-box entry subcircuit for sky130_fd_sc_hd__o21ai_1 abstract view
.subckt sky130_fd_sc_hd__o21ai_1 A1 A2 B1 VGND VNB VPB VPWR Y
.ends

* Black-box entry subcircuit for sky130_fd_sc_hd__clkbuf_4 abstract view
.subckt sky130_fd_sc_hd__clkbuf_4 A VGND VNB VPB VPWR X
.ends

* Black-box entry subcircuit for sky130_fd_sc_hd__nand2_2 abstract view
.subckt sky130_fd_sc_hd__nand2_2 A B VGND VNB VPB VPWR Y
.ends

* Black-box entry subcircuit for sky130_fd_sc_hd__diode_2 abstract view
.subckt sky130_fd_sc_hd__diode_2 DIODE VGND VNB VPB VPWR
.ends

* Black-box entry subcircuit for sky130_fd_sc_hd__and2_1 abstract view
.subckt sky130_fd_sc_hd__and2_1 A B VGND VNB VPB VPWR X
.ends

* Black-box entry subcircuit for sky130_fd_sc_hd__nand2_1 abstract view
.subckt sky130_fd_sc_hd__nand2_1 A B VGND VNB VPB VPWR Y
.ends

* Black-box entry subcircuit for sky130_fd_sc_hd__o21bai_1 abstract view
.subckt sky130_fd_sc_hd__o21bai_1 A1 A2 B1_N VGND VNB VPB VPWR Y
.ends

* Black-box entry subcircuit for sky130_fd_sc_hd__a21oi_2 abstract view
.subckt sky130_fd_sc_hd__a21oi_2 A1 A2 B1 VGND VNB VPB VPWR Y
.ends

* Black-box entry subcircuit for sky130_fd_sc_hd__o21a_2 abstract view
.subckt sky130_fd_sc_hd__o21a_2 A1 A2 B1 VGND VNB VPB VPWR X
.ends

* Black-box entry subcircuit for sky130_fd_sc_hd__xor2_2 abstract view
.subckt sky130_fd_sc_hd__xor2_2 A B VGND VNB VPB VPWR X
.ends

* Black-box entry subcircuit for sky130_fd_sc_hd__xor2_1 abstract view
.subckt sky130_fd_sc_hd__xor2_1 A B VGND VNB VPB VPWR X
.ends

* Black-box entry subcircuit for sky130_fd_sc_hd__nand2_4 abstract view
.subckt sky130_fd_sc_hd__nand2_4 A B VGND VNB VPB VPWR Y
.ends

* Black-box entry subcircuit for sky130_fd_sc_hd__clkinv_2 abstract view
.subckt sky130_fd_sc_hd__clkinv_2 A VGND VNB VPB VPWR Y
.ends

* Black-box entry subcircuit for sky130_fd_sc_hd__and2b_1 abstract view
.subckt sky130_fd_sc_hd__and2b_1 A_N B VGND VNB VPB VPWR X
.ends

* Black-box entry subcircuit for sky130_fd_sc_hd__o21bai_2 abstract view
.subckt sky130_fd_sc_hd__o21bai_2 A1 A2 B1_N VGND VNB VPB VPWR Y
.ends

* Black-box entry subcircuit for sky130_fd_sc_hd__o21ai_4 abstract view
.subckt sky130_fd_sc_hd__o21ai_4 A1 A2 B1 VGND VNB VPB VPWR Y
.ends

* Black-box entry subcircuit for sky130_fd_sc_hd__or2_2 abstract view
.subckt sky130_fd_sc_hd__or2_2 A B VGND VNB VPB VPWR X
.ends

* Black-box entry subcircuit for sky130_fd_sc_hd__o21bai_4 abstract view
.subckt sky130_fd_sc_hd__o21bai_4 A1 A2 B1_N VGND VNB VPB VPWR Y
.ends

* Black-box entry subcircuit for sky130_fd_sc_hd__buf_12 abstract view
.subckt sky130_fd_sc_hd__buf_12 A VGND VNB VPB VPWR X
.ends

* Black-box entry subcircuit for sky130_fd_sc_hd__or2_4 abstract view
.subckt sky130_fd_sc_hd__or2_4 A B VGND VNB VPB VPWR X
.ends

* Black-box entry subcircuit for sky130_fd_sc_hd__buf_8 abstract view
.subckt sky130_fd_sc_hd__buf_8 A VGND VNB VPB VPWR X
.ends

* Black-box entry subcircuit for sky130_fd_sc_hd__a21oi_4 abstract view
.subckt sky130_fd_sc_hd__a21oi_4 A1 A2 B1 VGND VNB VPB VPWR Y
.ends

* Black-box entry subcircuit for sky130_fd_sc_hd__o2bb2a_1 abstract view
.subckt sky130_fd_sc_hd__o2bb2a_1 A1_N A2_N B1 B2 VGND VNB VPB VPWR X
.ends

* Black-box entry subcircuit for sky130_fd_sc_hd__clkinv_4 abstract view
.subckt sky130_fd_sc_hd__clkinv_4 A VGND VNB VPB VPWR Y
.ends

* Black-box entry subcircuit for sky130_fd_sc_hd__and2_4 abstract view
.subckt sky130_fd_sc_hd__and2_4 A B VGND VNB VPB VPWR X
.ends

* Black-box entry subcircuit for sky130_fd_sc_hd__dfxtp_4 abstract view
.subckt sky130_fd_sc_hd__dfxtp_4 CLK D VGND VNB VPB VPWR Q
.ends

* Black-box entry subcircuit for sky130_fd_sc_hd__a31oi_1 abstract view
.subckt sky130_fd_sc_hd__a31oi_1 A1 A2 A3 B1 VGND VNB VPB VPWR Y
.ends

* Black-box entry subcircuit for sky130_fd_sc_hd__o22a_1 abstract view
.subckt sky130_fd_sc_hd__o22a_1 A1 A2 B1 B2 VGND VNB VPB VPWR X
.ends

* Black-box entry subcircuit for sky130_fd_sc_hd__nor3b_1 abstract view
.subckt sky130_fd_sc_hd__nor3b_1 A B C_N VGND VNB VPB VPWR Y
.ends

* Black-box entry subcircuit for sky130_fd_sc_hd__a311o_1 abstract view
.subckt sky130_fd_sc_hd__a311o_1 A1 A2 A3 B1 C1 VGND VNB VPB VPWR X
.ends

* Black-box entry subcircuit for sky130_fd_sc_hd__clkbuf_8 abstract view
.subckt sky130_fd_sc_hd__clkbuf_8 A VGND VNB VPB VPWR X
.ends

* Black-box entry subcircuit for sky130_fd_sc_hd__a21bo_2 abstract view
.subckt sky130_fd_sc_hd__a21bo_2 A1 A2 B1_N VGND VNB VPB VPWR X
.ends

* Black-box entry subcircuit for sky130_fd_sc_hd__inv_4 abstract view
.subckt sky130_fd_sc_hd__inv_4 A VGND VNB VPB VPWR Y
.ends

* Black-box entry subcircuit for sky130_fd_sc_hd__a21bo_1 abstract view
.subckt sky130_fd_sc_hd__a21bo_1 A1 A2 B1_N VGND VNB VPB VPWR X
.ends

* Black-box entry subcircuit for sky130_fd_sc_hd__a22oi_2 abstract view
.subckt sky130_fd_sc_hd__a22oi_2 A1 A2 B1 B2 VGND VNB VPB VPWR Y
.ends

* Black-box entry subcircuit for sky130_fd_sc_hd__o31a_2 abstract view
.subckt sky130_fd_sc_hd__o31a_2 A1 A2 A3 B1 VGND VNB VPB VPWR X
.ends

* Black-box entry subcircuit for sky130_fd_sc_hd__o32a_1 abstract view
.subckt sky130_fd_sc_hd__o32a_1 A1 A2 A3 B1 B2 VGND VNB VPB VPWR X
.ends

* Black-box entry subcircuit for sky130_fd_sc_hd__or3b_1 abstract view
.subckt sky130_fd_sc_hd__or3b_1 A B C_N VGND VNB VPB VPWR X
.ends

* Black-box entry subcircuit for sky130_fd_sc_hd__nand3_2 abstract view
.subckt sky130_fd_sc_hd__nand3_2 A B C VGND VNB VPB VPWR Y
.ends

* Black-box entry subcircuit for sky130_fd_sc_hd__nor2_4 abstract view
.subckt sky130_fd_sc_hd__nor2_4 A B VGND VNB VPB VPWR Y
.ends

.subckt wrapped_snn active io_in[0] io_in[10] io_in[11] io_in[12] io_in[13] io_in[14]
+ io_in[15] io_in[16] io_in[17] io_in[18] io_in[19] io_in[1] io_in[20] io_in[21] io_in[22]
+ io_in[23] io_in[24] io_in[25] io_in[26] io_in[27] io_in[28] io_in[29] io_in[2] io_in[30]
+ io_in[31] io_in[32] io_in[33] io_in[34] io_in[35] io_in[36] io_in[37] io_in[3] io_in[4]
+ io_in[5] io_in[6] io_in[7] io_in[8] io_in[9] io_oeb[0] io_oeb[10] io_oeb[11] io_oeb[12]
+ io_oeb[13] io_oeb[14] io_oeb[15] io_oeb[16] io_oeb[17] io_oeb[18] io_oeb[19] io_oeb[1]
+ io_oeb[20] io_oeb[21] io_oeb[22] io_oeb[23] io_oeb[24] io_oeb[25] io_oeb[26] io_oeb[27]
+ io_oeb[28] io_oeb[29] io_oeb[2] io_oeb[30] io_oeb[31] io_oeb[32] io_oeb[33] io_oeb[34]
+ io_oeb[35] io_oeb[36] io_oeb[37] io_oeb[3] io_oeb[4] io_oeb[5] io_oeb[6] io_oeb[7]
+ io_oeb[8] io_oeb[9] io_out[0] io_out[10] io_out[11] io_out[12] io_out[13] io_out[14]
+ io_out[15] io_out[16] io_out[17] io_out[18] io_out[19] io_out[1] io_out[20] io_out[21]
+ io_out[22] io_out[23] io_out[24] io_out[25] io_out[26] io_out[27] io_out[28] io_out[29]
+ io_out[2] io_out[30] io_out[31] io_out[32] io_out[33] io_out[34] io_out[35] io_out[36]
+ io_out[37] io_out[3] io_out[4] io_out[5] io_out[6] io_out[7] io_out[8] io_out[9]
+ vccd1 vssd1 wb_clk_i
XFILLER_79_380 vssd1 vssd1 vccd1 vccd1 sky130_fd_sc_hd__fill_1
XFILLER_100_149 vssd1 vssd1 vccd1 vccd1 sky130_fd_sc_hd__fill_1
X_09671_ _15674_/Q _09679_/C _09583_/X vssd1 vssd1 vccd1 vccd1 _09674_/B sky130_fd_sc_hd__a21o_1
XFILLER_39_266 vssd1 vssd1 vccd1 vccd1 sky130_fd_sc_hd__fill_1
XFILLER_27_417 vssd1 vssd1 vccd1 vccd1 sky130_fd_sc_hd__fill_2
XFILLER_54_203 vssd1 vssd1 vccd1 vccd1 sky130_fd_sc_hd__decap_12
X_08622_ _08622_/A _08622_/B vssd1 vssd1 vccd1 vccd1 _08623_/B sky130_fd_sc_hd__nor2_1
XFILLER_39_288 vssd1 vssd1 vccd1 vccd1 sky130_fd_sc_hd__decap_4
XFILLER_67_597 vssd1 vssd1 vccd1 vccd1 sky130_fd_sc_hd__decap_8
XFILLER_54_247 vssd1 vssd1 vccd1 vccd1 sky130_fd_sc_hd__decap_4
X_08553_ _10697_/A vssd1 vssd1 vccd1 vccd1 _08554_/A sky130_fd_sc_hd__buf_2
X_08484_ _08484_/A vssd1 vssd1 vccd1 vccd1 _08485_/B sky130_fd_sc_hd__inv_2
X_09105_ _15559_/Q _09145_/B _09110_/C vssd1 vssd1 vccd1 vccd1 _09112_/A sky130_fd_sc_hd__and3_1
XFILLER_109_739 vssd1 vssd1 vccd1 vccd1 sky130_fd_sc_hd__decap_4
X_09036_ _08872_/X _09029_/B _09032_/B _09035_/Y vssd1 vssd1 vccd1 vccd1 _15539_/D
+ sky130_fd_sc_hd__o31a_1
XFILLER_89_100 vssd1 vssd1 vccd1 vccd1 sky130_fd_sc_hd__decap_3
XFILLER_117_794 vssd1 vssd1 vccd1 vccd1 sky130_fd_sc_hd__decap_6
XFILLER_89_111 vssd1 vssd1 vccd1 vccd1 sky130_fd_sc_hd__fill_1
XFILLER_132_742 vssd1 vssd1 vccd1 vccd1 sky130_fd_sc_hd__fill_1
XFILLER_131_230 vssd1 vssd1 vccd1 vccd1 sky130_fd_sc_hd__decap_6
XFILLER_78_818 vssd1 vssd1 vccd1 vccd1 sky130_fd_sc_hd__decap_8
XFILLER_77_306 vssd1 vssd1 vccd1 vccd1 sky130_fd_sc_hd__decap_4
X_09938_ _09938_/A _09938_/B vssd1 vssd1 vccd1 vccd1 _15722_/D sky130_fd_sc_hd__nor2_1
X_09869_ _09869_/A _09869_/B _09869_/C vssd1 vssd1 vccd1 vccd1 _09870_/C sky130_fd_sc_hd__nand3_1
XFILLER_85_350 vssd1 vssd1 vccd1 vccd1 sky130_fd_sc_hd__decap_8
XFILLER_45_203 vssd1 vssd1 vccd1 vccd1 sky130_fd_sc_hd__fill_1
X_11900_ _11900_/A _11900_/B vssd1 vssd1 vccd1 vccd1 _11905_/C sky130_fd_sc_hd__nor2_1
XFILLER_58_597 vssd1 vssd1 vccd1 vccd1 sky130_fd_sc_hd__decap_8
XTAP_2501 vssd1 vccd1 sky130_fd_sc_hd__tapvpwrvgnd_1
XFILLER_45_225 vssd1 vssd1 vccd1 vccd1 sky130_fd_sc_hd__decap_6
X_12880_ _16176_/Q _12889_/C _12879_/X vssd1 vssd1 vccd1 vccd1 _12883_/B sky130_fd_sc_hd__a21o_1
XTAP_2512 vssd1 vccd1 sky130_fd_sc_hd__tapvpwrvgnd_1
XFILLER_73_556 vssd1 vssd1 vccd1 vccd1 sky130_fd_sc_hd__decap_4
XTAP_2523 vssd1 vccd1 sky130_fd_sc_hd__tapvpwrvgnd_1
XFILLER_93_69 vssd1 vssd1 vccd1 vccd1 sky130_fd_sc_hd__decap_4
XTAP_2534 vssd1 vccd1 sky130_fd_sc_hd__tapvpwrvgnd_1
X_11831_ _11829_/Y _11824_/C _11826_/Y _11827_/X vssd1 vssd1 vccd1 vccd1 _11832_/C
+ sky130_fd_sc_hd__a211o_1
XTAP_2545 vssd1 vccd1 sky130_fd_sc_hd__tapvpwrvgnd_1
XTAP_1800 vssd1 vccd1 sky130_fd_sc_hd__tapvpwrvgnd_1
XTAP_2556 vssd1 vccd1 sky130_fd_sc_hd__tapvpwrvgnd_1
XTAP_1811 vssd1 vccd1 sky130_fd_sc_hd__tapvpwrvgnd_1
XFILLER_26_63 vssd1 vssd1 vccd1 vccd1 sky130_fd_sc_hd__decap_4
XTAP_1822 vssd1 vccd1 sky130_fd_sc_hd__tapvpwrvgnd_1
XTAP_2567 vssd1 vccd1 sky130_fd_sc_hd__tapvpwrvgnd_1
XFILLER_26_74 vssd1 vssd1 vccd1 vccd1 sky130_fd_sc_hd__decap_8
XTAP_2578 vssd1 vccd1 sky130_fd_sc_hd__tapvpwrvgnd_1
XFILLER_14_623 vssd1 vssd1 vccd1 vccd1 sky130_fd_sc_hd__decap_4
X_14550_ _14550_/A _14550_/B vssd1 vssd1 vccd1 vccd1 _14555_/C sky130_fd_sc_hd__nor2_1
XTAP_1833 vssd1 vccd1 sky130_fd_sc_hd__tapvpwrvgnd_1
XTAP_2589 vssd1 vccd1 sky130_fd_sc_hd__tapvpwrvgnd_1
X_11762_ _16018_/Q _11764_/C _11591_/X vssd1 vssd1 vccd1 vccd1 _11762_/Y sky130_fd_sc_hd__a21oi_1
XTAP_1844 vssd1 vccd1 sky130_fd_sc_hd__tapvpwrvgnd_1
XFILLER_14_645 vssd1 vssd1 vccd1 vccd1 sky130_fd_sc_hd__fill_1
XFILLER_13_111 vssd1 vssd1 vccd1 vccd1 sky130_fd_sc_hd__fill_1
XTAP_1855 vssd1 vccd1 sky130_fd_sc_hd__tapvpwrvgnd_1
XTAP_1866 vssd1 vccd1 sky130_fd_sc_hd__tapvpwrvgnd_1
X_13501_ _16264_/Q _13731_/B _13507_/C vssd1 vssd1 vccd1 vccd1 _13503_/C sky130_fd_sc_hd__nand3_1
X_10713_ _10708_/B _10711_/B _08705_/B vssd1 vssd1 vccd1 vccd1 _10714_/B sky130_fd_sc_hd__o21a_1
XTAP_1877 vssd1 vccd1 sky130_fd_sc_hd__tapvpwrvgnd_1
X_14481_ _16403_/Q _14598_/B _14486_/C vssd1 vssd1 vccd1 vccd1 _14481_/Y sky130_fd_sc_hd__nand3_1
XTAP_1888 vssd1 vccd1 sky130_fd_sc_hd__tapvpwrvgnd_1
X_11693_ _11693_/A _11693_/B _11693_/C vssd1 vssd1 vccd1 vccd1 _11694_/C sky130_fd_sc_hd__nand3_1
XTAP_1899 vssd1 vccd1 sky130_fd_sc_hd__tapvpwrvgnd_1
X_16220_ _16237_/CLK _16220_/D vssd1 vssd1 vccd1 vccd1 _16220_/Q sky130_fd_sc_hd__dfxtp_1
XFILLER_9_137 vssd1 vssd1 vccd1 vccd1 sky130_fd_sc_hd__decap_12
X_13432_ _13432_/A _13432_/B _13432_/C vssd1 vssd1 vccd1 vccd1 _13433_/C sky130_fd_sc_hd__or3_1
X_10644_ _15855_/Q _10652_/C _09683_/A vssd1 vssd1 vccd1 vccd1 _10644_/Y sky130_fd_sc_hd__a21oi_1
X_16151_ _16261_/CLK _16151_/D vssd1 vssd1 vccd1 vccd1 _16151_/Q sky130_fd_sc_hd__dfxtp_1
X_10575_ _10418_/X _10573_/B _10473_/X vssd1 vssd1 vccd1 vccd1 _10575_/Y sky130_fd_sc_hd__a21oi_1
X_13363_ _16245_/Q _13364_/C _13140_/X vssd1 vssd1 vccd1 vccd1 _13365_/A sky130_fd_sc_hd__a21oi_1
XFILLER_5_321 vssd1 vssd1 vccd1 vccd1 sky130_fd_sc_hd__decap_12
X_15102_ _16503_/Q _15109_/C _08747_/A vssd1 vssd1 vccd1 vccd1 _15102_/Y sky130_fd_sc_hd__a21oi_1
X_12314_ _12371_/A _12314_/B _12320_/A vssd1 vssd1 vccd1 vccd1 _16094_/D sky130_fd_sc_hd__nor3_1
X_16082_ _16118_/CLK _16082_/D vssd1 vssd1 vccd1 vccd1 _16082_/Q sky130_fd_sc_hd__dfxtp_1
XFILLER_127_569 vssd1 vssd1 vccd1 vccd1 sky130_fd_sc_hd__decap_4
XFILLER_108_750 vssd1 vssd1 vccd1 vccd1 sky130_fd_sc_hd__decap_6
X_13294_ _13292_/Y _13286_/C _13290_/Y _13291_/X vssd1 vssd1 vccd1 vccd1 _13295_/C
+ sky130_fd_sc_hd__a211o_1
XFILLER_108_761 vssd1 vssd1 vccd1 vccd1 sky130_fd_sc_hd__decap_4
XFILLER_5_365 vssd1 vssd1 vccd1 vccd1 sky130_fd_sc_hd__decap_8
XFILLER_142_528 vssd1 vssd1 vccd1 vccd1 sky130_fd_sc_hd__decap_4
X_15033_ _16492_/Q _15033_/B _15035_/C vssd1 vssd1 vccd1 vccd1 _15033_/X sky130_fd_sc_hd__and3_1
XFILLER_5_376 vssd1 vssd1 vccd1 vccd1 sky130_fd_sc_hd__decap_6
X_12245_ _12245_/A vssd1 vssd1 vccd1 vccd1 _16085_/D sky130_fd_sc_hd__clkbuf_1
XFILLER_107_293 vssd1 vssd1 vccd1 vccd1 sky130_fd_sc_hd__decap_6
XFILLER_123_753 vssd1 vssd1 vccd1 vccd1 sky130_fd_sc_hd__decap_4
X_12176_ _12174_/Y _12170_/C _12172_/Y _12181_/A vssd1 vssd1 vccd1 vccd1 _12181_/B
+ sky130_fd_sc_hd__a211oi_1
XFILLER_150_561 vssd1 vssd1 vccd1 vccd1 sky130_fd_sc_hd__decap_12
XFILLER_3_34 vssd1 vssd1 vccd1 vccd1 sky130_fd_sc_hd__decap_12
XFILLER_110_403 vssd1 vssd1 vccd1 vccd1 sky130_fd_sc_hd__fill_1
X_11127_ _11978_/A vssd1 vssd1 vccd1 vccd1 _11353_/B sky130_fd_sc_hd__buf_2
XFILLER_68_339 vssd1 vssd1 vccd1 vccd1 sky130_fd_sc_hd__decap_4
XFILLER_122_285 vssd1 vssd1 vccd1 vccd1 sky130_fd_sc_hd__decap_8
X_15935_ _15365_/A _15935_/D vssd1 vssd1 vccd1 vccd1 _15935_/Q sky130_fd_sc_hd__dfxtp_1
XFILLER_67_70 vssd1 vssd1 vccd1 vccd1 sky130_fd_sc_hd__decap_4
X_11058_ _11078_/C vssd1 vssd1 vccd1 vccd1 _11093_/C sky130_fd_sc_hd__dlymetal6s2s_1
XFILLER_49_564 vssd1 vssd1 vccd1 vccd1 sky130_fd_sc_hd__decap_4
XFILLER_95_169 vssd1 vssd1 vccd1 vccd1 sky130_fd_sc_hd__decap_6
XFILLER_76_350 vssd1 vssd1 vccd1 vccd1 sky130_fd_sc_hd__fill_1
X_10009_ _15740_/Q _10009_/B _10009_/C vssd1 vssd1 vccd1 vccd1 _10009_/X sky130_fd_sc_hd__and3_1
XFILLER_37_737 vssd1 vssd1 vccd1 vccd1 sky130_fd_sc_hd__decap_6
X_15866_ _16570_/CLK _15866_/D vssd1 vssd1 vccd1 vccd1 _15866_/Q sky130_fd_sc_hd__dfxtp_1
XFILLER_52_707 vssd1 vssd1 vccd1 vccd1 sky130_fd_sc_hd__decap_6
X_14817_ _14813_/Y _14815_/X _14816_/Y _14811_/C vssd1 vssd1 vccd1 vccd1 _14819_/B
+ sky130_fd_sc_hd__o211ai_1
XFILLER_52_729 vssd1 vssd1 vccd1 vccd1 sky130_fd_sc_hd__decap_6
X_15797_ _16595_/CLK _15797_/D vssd1 vssd1 vccd1 vccd1 _15797_/Q sky130_fd_sc_hd__dfxtp_2
XFILLER_45_770 vssd1 vssd1 vccd1 vccd1 sky130_fd_sc_hd__decap_4
X_14748_ _16447_/Q _14748_/B _14750_/C vssd1 vssd1 vccd1 vccd1 _14748_/X sky130_fd_sc_hd__and3_1
XFILLER_60_740 vssd1 vssd1 vccd1 vccd1 sky130_fd_sc_hd__decap_4
XFILLER_32_464 vssd1 vssd1 vccd1 vccd1 sky130_fd_sc_hd__decap_12
X_14679_ _16435_/Q _14716_/C _14621_/X vssd1 vssd1 vccd1 vccd1 _14681_/B sky130_fd_sc_hd__a21oi_1
XFILLER_32_497 vssd1 vssd1 vccd1 vccd1 sky130_fd_sc_hd__decap_4
X_16418_ _16595_/CLK _16418_/D vssd1 vssd1 vccd1 vccd1 _16418_/Q sky130_fd_sc_hd__dfxtp_1
XFILLER_20_659 vssd1 vssd1 vccd1 vccd1 sky130_fd_sc_hd__decap_4
XFILLER_9_660 vssd1 vssd1 vccd1 vccd1 sky130_fd_sc_hd__decap_12
X_16349_ _16389_/CLK _16349_/D vssd1 vssd1 vccd1 vccd1 _16349_/Q sky130_fd_sc_hd__dfxtp_1
XFILLER_9_682 vssd1 vssd1 vccd1 vccd1 sky130_fd_sc_hd__decap_4
XFILLER_146_867 vssd1 vssd1 vccd1 vccd1 sky130_fd_sc_hd__fill_1
XFILLER_118_569 vssd1 vssd1 vccd1 vccd1 sky130_fd_sc_hd__decap_12
XFILLER_145_388 vssd1 vssd1 vccd1 vccd1 sky130_fd_sc_hd__decap_4
XFILLER_99_431 vssd1 vssd1 vccd1 vccd1 sky130_fd_sc_hd__decap_8
XFILLER_141_550 vssd1 vssd1 vccd1 vccd1 sky130_fd_sc_hd__fill_1
XFILLER_87_604 vssd1 vssd1 vccd1 vccd1 sky130_fd_sc_hd__decap_4
XFILLER_99_486 vssd1 vssd1 vccd1 vccd1 sky130_fd_sc_hd__fill_2
XFILLER_87_659 vssd1 vssd1 vccd1 vccd1 sky130_fd_sc_hd__decap_6
X_07984_ _14000_/A _08183_/B vssd1 vssd1 vccd1 vccd1 _07986_/B sky130_fd_sc_hd__xnor2_1
XFILLER_101_447 vssd1 vssd1 vccd1 vccd1 sky130_fd_sc_hd__fill_1
X_09723_ _09810_/A _09723_/B _09723_/C vssd1 vssd1 vccd1 vccd1 _09724_/A sky130_fd_sc_hd__and3_1
XFILLER_86_169 vssd1 vssd1 vccd1 vccd1 sky130_fd_sc_hd__decap_4
XFILLER_55_501 vssd1 vssd1 vccd1 vccd1 sky130_fd_sc_hd__decap_3
XFILLER_27_203 vssd1 vssd1 vccd1 vccd1 sky130_fd_sc_hd__decap_4
X_09654_ _09647_/Y _09648_/X _09650_/B vssd1 vssd1 vccd1 vccd1 _09655_/B sky130_fd_sc_hd__o21a_1
XFILLER_27_225 vssd1 vssd1 vccd1 vccd1 sky130_fd_sc_hd__fill_1
X_08605_ _15460_/Q _08619_/C _08604_/X vssd1 vssd1 vccd1 vccd1 _08605_/Y sky130_fd_sc_hd__a21oi_1
XFILLER_103_46 vssd1 vssd1 vccd1 vccd1 sky130_fd_sc_hd__fill_1
X_09585_ _15656_/Q _09585_/B _09592_/C vssd1 vssd1 vccd1 vccd1 _09587_/C sky130_fd_sc_hd__nand3_1
XTAP_1107 vssd1 vccd1 sky130_fd_sc_hd__tapvpwrvgnd_1
XTAP_1118 vssd1 vccd1 sky130_fd_sc_hd__tapvpwrvgnd_1
XTAP_1129 vssd1 vccd1 sky130_fd_sc_hd__tapvpwrvgnd_1
XFILLER_70_537 vssd1 vssd1 vccd1 vccd1 sky130_fd_sc_hd__decap_4
XFILLER_82_397 vssd1 vssd1 vccd1 vccd1 sky130_fd_sc_hd__decap_4
X_08536_ _08515_/A _08515_/B _08535_/Y vssd1 vssd1 vccd1 vccd1 _08543_/A sky130_fd_sc_hd__a21o_2
XFILLER_51_740 vssd1 vssd1 vccd1 vccd1 sky130_fd_sc_hd__decap_4
X_08467_ _08502_/A _08467_/B vssd1 vssd1 vccd1 vccd1 _08496_/B sky130_fd_sc_hd__and2_2
XFILLER_11_637 vssd1 vssd1 vccd1 vccd1 sky130_fd_sc_hd__decap_6
X_08398_ _08463_/A _08463_/B vssd1 vssd1 vccd1 vccd1 _08399_/B sky130_fd_sc_hd__xor2_4
XFILLER_11_659 vssd1 vssd1 vccd1 vccd1 sky130_fd_sc_hd__decap_4
XFILLER_148_182 vssd1 vssd1 vccd1 vccd1 sky130_fd_sc_hd__decap_4
XFILLER_12_65 vssd1 vssd1 vccd1 vccd1 sky130_fd_sc_hd__decap_12
X_10360_ _10755_/B vssd1 vssd1 vccd1 vccd1 _10360_/X sky130_fd_sc_hd__clkbuf_2
XFILLER_109_558 vssd1 vssd1 vccd1 vccd1 sky130_fd_sc_hd__fill_2
XFILLER_137_889 vssd1 vssd1 vccd1 vccd1 sky130_fd_sc_hd__fill_2
XFILLER_128_54 vssd1 vssd1 vccd1 vccd1 sky130_fd_sc_hd__fill_2
X_09019_ _09142_/A _09019_/B _09019_/C vssd1 vssd1 vccd1 vccd1 _09020_/A sky130_fd_sc_hd__and3_1
XFILLER_124_528 vssd1 vssd1 vccd1 vccd1 sky130_fd_sc_hd__decap_4
X_10291_ _10338_/A _10291_/B _10291_/C vssd1 vssd1 vccd1 vccd1 _10292_/A sky130_fd_sc_hd__and3_1
XFILLER_128_98 vssd1 vssd1 vccd1 vccd1 sky130_fd_sc_hd__decap_4
X_12030_ _16056_/Q _12038_/C _12029_/X vssd1 vssd1 vccd1 vccd1 _12033_/B sky130_fd_sc_hd__a21o_1
XFILLER_2_346 vssd1 vssd1 vccd1 vccd1 sky130_fd_sc_hd__fill_1
XFILLER_88_69 vssd1 vssd1 vccd1 vccd1 sky130_fd_sc_hd__decap_4
XFILLER_105_753 vssd1 vssd1 vccd1 vccd1 sky130_fd_sc_hd__fill_1
XFILLER_120_701 vssd1 vssd1 vccd1 vccd1 sky130_fd_sc_hd__decap_4
XFILLER_132_572 vssd1 vssd1 vccd1 vccd1 sky130_fd_sc_hd__decap_6
XFILLER_144_53 vssd1 vssd1 vccd1 vccd1 sky130_fd_sc_hd__decap_4
XFILLER_120_745 vssd1 vssd1 vccd1 vccd1 sky130_fd_sc_hd__decap_8
X_13981_ _16332_/Q _14148_/B _13981_/C vssd1 vssd1 vccd1 vccd1 _13991_/A sky130_fd_sc_hd__and3_1
X_15720_ _15812_/CLK _15720_/D vssd1 vssd1 vccd1 vccd1 _15720_/Q sky130_fd_sc_hd__dfxtp_1
X_12932_ _12932_/A vssd1 vssd1 vccd1 vccd1 _14060_/A sky130_fd_sc_hd__buf_6
XFILLER_92_139 vssd1 vssd1 vccd1 vccd1 sky130_fd_sc_hd__fill_1
XFILLER_18_247 vssd1 vssd1 vccd1 vccd1 sky130_fd_sc_hd__decap_4
X_16642__47 vssd1 vssd1 vccd1 vccd1 _16642__47/HI _16718_/A sky130_fd_sc_hd__conb_1
X_15651_ _15791_/CLK _15651_/D vssd1 vssd1 vccd1 vccd1 _15651_/Q sky130_fd_sc_hd__dfxtp_1
XTAP_2320 vssd1 vccd1 sky130_fd_sc_hd__tapvpwrvgnd_1
XFILLER_73_364 vssd1 vssd1 vccd1 vccd1 sky130_fd_sc_hd__decap_8
X_12863_ _12863_/A _12863_/B vssd1 vssd1 vccd1 vccd1 _12868_/C sky130_fd_sc_hd__nor2_1
XTAP_2331 vssd1 vccd1 sky130_fd_sc_hd__tapvpwrvgnd_1
XTAP_2342 vssd1 vccd1 sky130_fd_sc_hd__tapvpwrvgnd_1
X_14602_ _16423_/Q _14603_/C _14544_/X vssd1 vssd1 vccd1 vccd1 _14604_/A sky130_fd_sc_hd__a21oi_1
XTAP_2353 vssd1 vccd1 sky130_fd_sc_hd__tapvpwrvgnd_1
XFILLER_61_537 vssd1 vssd1 vccd1 vccd1 sky130_fd_sc_hd__decap_4
X_11814_ _16025_/Q _11922_/B _11814_/C vssd1 vssd1 vccd1 vccd1 _11814_/X sky130_fd_sc_hd__and3_1
XTAP_2364 vssd1 vccd1 sky130_fd_sc_hd__tapvpwrvgnd_1
X_15582_ _16551_/CLK _15582_/D vssd1 vssd1 vccd1 vccd1 _15582_/Q sky130_fd_sc_hd__dfxtp_2
XTAP_1630 vssd1 vccd1 sky130_fd_sc_hd__tapvpwrvgnd_1
XTAP_2375 vssd1 vccd1 sky130_fd_sc_hd__tapvpwrvgnd_1
XTAP_1641 vssd1 vccd1 sky130_fd_sc_hd__tapvpwrvgnd_1
X_12794_ _12790_/Y _12800_/A _12793_/Y _12788_/C vssd1 vssd1 vccd1 vccd1 _12796_/B
+ sky130_fd_sc_hd__o211a_1
XFILLER_42_740 vssd1 vssd1 vccd1 vccd1 sky130_fd_sc_hd__decap_4
XTAP_2386 vssd1 vccd1 sky130_fd_sc_hd__tapvpwrvgnd_1
XTAP_1652 vssd1 vccd1 sky130_fd_sc_hd__tapvpwrvgnd_1
XTAP_2397 vssd1 vccd1 sky130_fd_sc_hd__tapvpwrvgnd_1
X_14533_ _14529_/Y _14531_/X _14532_/Y _14527_/C vssd1 vssd1 vccd1 vccd1 _14535_/B
+ sky130_fd_sc_hd__o211ai_1
XTAP_1663 vssd1 vccd1 sky130_fd_sc_hd__tapvpwrvgnd_1
X_11745_ _12312_/A vssd1 vssd1 vccd1 vccd1 _11969_/B sky130_fd_sc_hd__dlymetal6s2s_1
XTAP_1674 vssd1 vccd1 sky130_fd_sc_hd__tapvpwrvgnd_1
XTAP_1685 vssd1 vccd1 sky130_fd_sc_hd__tapvpwrvgnd_1
XFILLER_14_475 vssd1 vssd1 vccd1 vccd1 sky130_fd_sc_hd__fill_1
XTAP_1696 vssd1 vccd1 sky130_fd_sc_hd__tapvpwrvgnd_1
X_14464_ _16402_/Q _14464_/B _14466_/C vssd1 vssd1 vccd1 vccd1 _14464_/X sky130_fd_sc_hd__and3_1
X_11676_ _11957_/A vssd1 vssd1 vccd1 vccd1 _11903_/A sky130_fd_sc_hd__dlymetal6s2s_1
X_16203_ _16237_/CLK _16203_/D vssd1 vssd1 vccd1 vccd1 _16203_/Q sky130_fd_sc_hd__dfxtp_1
XFILLER_146_119 vssd1 vssd1 vccd1 vccd1 sky130_fd_sc_hd__decap_4
X_13415_ _16252_/Q _13424_/C _13414_/X vssd1 vssd1 vccd1 vccd1 _13415_/Y sky130_fd_sc_hd__a21oi_1
XFILLER_127_300 vssd1 vssd1 vccd1 vccd1 sky130_fd_sc_hd__decap_8
X_10627_ _10639_/C vssd1 vssd1 vccd1 vccd1 _10652_/C sky130_fd_sc_hd__dlymetal6s2s_1
X_14395_ _14427_/C vssd1 vssd1 vccd1 vccd1 _14433_/C sky130_fd_sc_hd__clkbuf_2
X_16134_ _16555_/Q _16134_/D vssd1 vssd1 vccd1 vccd1 _16134_/Q sky130_fd_sc_hd__dfxtp_2
XFILLER_128_867 vssd1 vssd1 vccd1 vccd1 sky130_fd_sc_hd__fill_1
X_13346_ _13344_/Y _13339_/C _13341_/Y _13342_/X vssd1 vssd1 vccd1 vccd1 _13347_/C
+ sky130_fd_sc_hd__a211o_1
X_10558_ _15838_/Q _10565_/C _10454_/X vssd1 vssd1 vccd1 vccd1 _10558_/Y sky130_fd_sc_hd__a21oi_1
XFILLER_127_366 vssd1 vssd1 vccd1 vccd1 sky130_fd_sc_hd__decap_6
X_16065_ _16118_/CLK _16065_/D vssd1 vssd1 vccd1 vccd1 _16065_/Q sky130_fd_sc_hd__dfxtp_1
X_13277_ _16232_/Q _13445_/B _13283_/C vssd1 vssd1 vccd1 vccd1 _13279_/C sky130_fd_sc_hd__nand3_1
X_10489_ _10489_/A _10489_/B _10489_/C vssd1 vssd1 vccd1 vccd1 _10490_/C sky130_fd_sc_hd__nand3_1
X_15016_ _15049_/C vssd1 vssd1 vccd1 vccd1 _15055_/C sky130_fd_sc_hd__clkbuf_2
XFILLER_142_369 vssd1 vssd1 vccd1 vccd1 sky130_fd_sc_hd__fill_1
X_12228_ _12224_/Y _12234_/A _12227_/Y _12222_/C vssd1 vssd1 vccd1 vccd1 _12230_/B
+ sky130_fd_sc_hd__o211a_1
X_12159_ _16074_/Q _12210_/B _12160_/C vssd1 vssd1 vccd1 vccd1 _12159_/X sky130_fd_sc_hd__and3_1
XFILLER_68_136 vssd1 vssd1 vccd1 vccd1 sky130_fd_sc_hd__decap_4
XFILLER_110_222 vssd1 vssd1 vccd1 vccd1 sky130_fd_sc_hd__decap_4
XFILLER_96_467 vssd1 vssd1 vccd1 vccd1 sky130_fd_sc_hd__decap_8
XFILLER_111_778 vssd1 vssd1 vccd1 vccd1 sky130_fd_sc_hd__decap_6
XFILLER_77_681 vssd1 vssd1 vccd1 vccd1 sky130_fd_sc_hd__decap_4
XFILLER_83_128 vssd1 vssd1 vccd1 vccd1 sky130_fd_sc_hd__decap_4
X_15918_ _15365_/A _15918_/D vssd1 vssd1 vccd1 vccd1 _15918_/Q sky130_fd_sc_hd__dfxtp_2
XFILLER_37_556 vssd1 vssd1 vccd1 vccd1 sky130_fd_sc_hd__decap_4
XFILLER_64_342 vssd1 vssd1 vccd1 vccd1 sky130_fd_sc_hd__decap_6
XFILLER_65_865 vssd1 vssd1 vccd1 vccd1 sky130_fd_sc_hd__decap_12
X_15849_ _16595_/CLK _15849_/D vssd1 vssd1 vccd1 vccd1 _15849_/Q sky130_fd_sc_hd__dfxtp_1
XFILLER_25_729 vssd1 vssd1 vccd1 vccd1 sky130_fd_sc_hd__fill_1
XFILLER_24_239 vssd1 vssd1 vccd1 vccd1 sky130_fd_sc_hd__decap_4
X_09370_ _15612_/Q _09371_/C _09369_/X vssd1 vssd1 vccd1 vccd1 _09370_/Y sky130_fd_sc_hd__a21oi_1
X_08321_ _08321_/A _08321_/B vssd1 vssd1 vccd1 vccd1 _08321_/Y sky130_fd_sc_hd__nor2_1
XFILLER_20_412 vssd1 vssd1 vccd1 vccd1 sky130_fd_sc_hd__decap_8
X_08252_ _08252_/A _08252_/B vssd1 vssd1 vccd1 vccd1 _08253_/B sky130_fd_sc_hd__nor2_2